Version 4
SHEET 1 880 680
WIRE -560 0 -592 0
WIRE -512 0 -560 0
WIRE -448 0 -512 0
WIRE -400 0 -448 0
WIRE -336 0 -400 0
WIRE -288 0 -336 0
WIRE -224 0 -288 0
WIRE -176 0 -224 0
WIRE -112 0 -176 0
WIRE -64 0 -112 0
WIRE 0 0 -64 0
WIRE 48 0 0 0
WIRE 112 0 48 0
WIRE 160 0 112 0
WIRE 224 0 160 0
WIRE 272 0 224 0
WIRE 336 0 272 0
WIRE 384 0 336 0
WIRE 448 0 384 0
WIRE 496 0 448 0
WIRE 560 0 496 0
WIRE 608 0 560 0
WIRE -592 16 -592 0
WIRE -560 16 -560 0
WIRE -448 16 -448 0
WIRE -336 16 -336 0
WIRE -224 16 -224 0
WIRE -112 16 -112 0
WIRE 0 16 0 0
WIRE 112 16 112 0
WIRE 224 16 224 0
WIRE 336 16 336 0
WIRE 448 16 448 0
WIRE 560 16 560 0
WIRE -544 80 -560 80
WIRE -512 80 -544 80
WIRE -432 80 -448 80
WIRE -400 80 -432 80
WIRE -320 80 -336 80
WIRE -288 80 -320 80
WIRE -208 80 -224 80
WIRE -176 80 -208 80
WIRE -96 80 -112 80
WIRE -64 80 -96 80
WIRE 16 80 0 80
WIRE 48 80 16 80
WIRE 128 80 112 80
WIRE 160 80 128 80
WIRE 240 80 224 80
WIRE 272 80 240 80
WIRE 352 80 336 80
WIRE 384 80 352 80
WIRE 464 80 448 80
WIRE 496 80 464 80
WIRE 576 80 560 80
WIRE 608 80 576 80
WIRE -544 112 -544 80
WIRE -432 112 -432 80
WIRE -320 112 -320 80
WIRE -208 112 -208 80
WIRE -96 112 -96 80
WIRE 16 112 16 80
WIRE 128 112 128 80
WIRE 240 112 240 80
WIRE 352 112 352 80
WIRE 464 112 464 80
WIRE 576 112 576 80
WIRE -480 160 -496 160
WIRE -368 160 -384 160
WIRE -256 160 -272 160
WIRE -144 160 -160 160
WIRE -32 160 -48 160
WIRE 80 160 64 160
WIRE 192 160 176 160
WIRE 304 160 288 160
WIRE 416 160 400 160
WIRE 528 160 512 160
FLAG -592 16 0
FLAG -560 80 M1
FLAG -448 80 M2
FLAG -336 80 M3
FLAG -224 80 M4
FLAG -112 80 M5
FLAG 0 80 M6
FLAG 112 80 M7
FLAG 224 80 M8
FLAG 336 80 M9
FLAG 448 80 M10
FLAG 560 80 M11
SYMBOL res -528 -16 R0
SYMATTR InstName R1
SYMATTR Value {R}
SYMBOL Module -544 160 R0
SYMATTR InstName X1
SYMBOL Module -432 160 R0
SYMATTR InstName X2
SYMBOL Module -320 160 R0
SYMATTR InstName X3
SYMBOL Module -208 160 R0
SYMATTR InstName X4
SYMBOL Module -96 160 R0
SYMATTR InstName X5
SYMBOL Module 16 160 R0
SYMATTR InstName X6
SYMBOL Module 128 160 R0
SYMATTR InstName X7
SYMBOL Module 240 160 R0
SYMATTR InstName X8
SYMBOL Module 352 160 R0
SYMATTR InstName X9
SYMBOL Module 464 160 R0
SYMATTR InstName X10
SYMBOL Module 576 160 R0
SYMATTR InstName X11
SYMBOL res -416 -16 R0
SYMATTR InstName R2
SYMATTR Value {R}
SYMBOL res -304 -16 R0
SYMATTR InstName R3
SYMATTR Value {R}
SYMBOL res -192 -16 R0
SYMATTR InstName R4
SYMATTR Value {R}
SYMBOL res -80 -16 R0
SYMATTR InstName R5
SYMATTR Value {R}
SYMBOL res 32 -16 R0
SYMATTR InstName R6
SYMATTR Value {R}
SYMBOL res 144 -16 R0
SYMATTR InstName R7
SYMATTR Value {R}
SYMBOL res 256 -16 R0
SYMATTR InstName R8
SYMATTR Value {R}
SYMBOL res 368 -16 R0
SYMATTR InstName R9
SYMATTR Value {R}
SYMBOL res 480 -16 R0
SYMATTR InstName R10
SYMATTR Value {R}
SYMBOL res 592 -16 R0
SYMATTR InstName R11
SYMATTR Value {R}
SYMBOL cap 544 16 R0
SYMATTR InstName C11
SYMATTR Value {C}
SYMBOL cap 432 16 R0
SYMATTR InstName C10
SYMATTR Value {C}
SYMBOL cap 320 16 R0
SYMATTR InstName C9
SYMATTR Value {C}
SYMBOL cap -576 16 R0
SYMATTR InstName C1
SYMATTR Value {C}
SYMBOL cap -464 16 R0
SYMATTR InstName C2
SYMATTR Value {C}
SYMBOL cap -352 16 R0
SYMATTR InstName C3
SYMATTR Value {C}
SYMBOL cap -240 16 R0
SYMATTR InstName C4
SYMATTR Value {C}
SYMBOL cap -128 16 R0
SYMATTR InstName C5
SYMATTR Value {C}
SYMBOL cap -16 16 R0
SYMATTR InstName C6
SYMATTR Value {C}
SYMBOL cap 96 16 R0
SYMATTR InstName C7
SYMATTR Value {C}
SYMBOL cap 208 16 R0
SYMATTR InstName C8
SYMATTR Value {C}
TEXT -592 280 Left 2 !.tran 90
TEXT -896 96 Left 2 !.param R = 0.5
TEXT -896 128 Left 2 !.param C = 80
TEXT -592 304 Left 2 !.ic V(M1) = 0
TEXT -592 328 Left 2 !.ic V(M2) = 0
TEXT -592 352 Left 2 !.ic V(M3) = 0
TEXT -592 376 Left 2 !.ic V(M4) = 0
TEXT -592 400 Left 2 !.ic V(M5) = 0
TEXT -592 424 Left 2 !.ic V(M6) = 0
TEXT -592 448 Left 2 !.ic V(M7) = 0
TEXT -592 472 Left 2 !.ic V(M8) = 0
TEXT -592 496 Left 2 !.ic V(M9) = 0
TEXT -592 520 Left 2 !.ic V(M10) = 0
TEXT -592 544 Left 2 !.ic V(M11) = 0
