Version 4
SHEET 1 1396 928
WIRE 208 48 144 48
WIRE 304 48 288 48
WIRE 400 48 384 48
WIRE 496 48 480 48
WIRE 576 48 576 -32
WIRE 592 48 576 48
WIRE 688 48 672 48
WIRE 784 48 768 48
WIRE 880 48 864 48
WIRE 1056 48 1040 48
WIRE 1152 48 1136 48
WIRE 1296 48 1232 48
WIRE 208 112 208 48
WIRE 496 112 496 48
WIRE 672 112 672 48
WIRE 960 112 960 48
WIRE 1056 112 1056 48
WIRE 1136 112 1136 48
WIRE 496 192 496 176
WIRE 672 192 672 176
WIRE 1056 192 1056 176
WIRE 1136 192 1136 176
FLAG 496 192 0
FLAG 1056 192 0
FLAG 144 48 Tf
FLAG 1296 48 Tb
FLAG 576 -32 Ta
FLAG 672 192 0
FLAG 1136 192 0
FLAG 496 48 Tcf
FLAG 672 48 Tcb
FLAG 1056 48 Tff
FLAG 1136 48 Tfb
SYMBOL Cell 960 160 R0
SYMATTR InstName X1
SYMBOL Cell 208 160 R0
SYMATTR InstName X3
SYMBOL res 1152 32 R90
WINDOW 0 0 56 VBottom 2
WINDOW 3 32 56 VTop 2
SYMATTR InstName R10
SYMATTR Value {Rf}
SYMBOL res 400 32 R90
WINDOW 0 0 56 VBottom 2
WINDOW 3 32 56 VTop 2
SYMATTR InstName R2
SYMATTR Value {Ri}
SYMBOL res 592 32 R90
WINDOW 0 0 56 VBottom 2
WINDOW 3 32 56 VTop 2
SYMATTR InstName R4
SYMATTR Value {Ra2}
SYMBOL res 880 32 R90
WINDOW 0 0 56 VBottom 2
WINDOW 3 32 56 VTop 2
SYMATTR InstName R7
SYMATTR Value {Ri}
SYMBOL res 304 32 R90
WINDOW 0 0 56 VBottom 2
WINDOW 3 32 56 VTop 2
SYMATTR InstName R1
SYMATTR Value {Rci}
SYMBOL res 976 32 R90
WINDOW 0 0 56 VBottom 2
WINDOW 3 32 56 VTop 2
SYMATTR InstName R8
SYMATTR Value {Rci}
SYMBOL res 496 32 R90
WINDOW 0 0 56 VBottom 2
WINDOW 3 32 56 VTop 2
SYMATTR InstName R3
SYMATTR Value {Rcia}
SYMBOL res 784 32 R90
WINDOW 0 0 56 VBottom 2
WINDOW 3 32 56 VTop 2
SYMATTR InstName R6
SYMATTR Value {Rcia}
SYMBOL res 1056 32 R90
WINDOW 0 0 56 VBottom 2
WINDOW 3 32 56 VTop 2
SYMATTR InstName R9
SYMATTR Value {Rcf}
SYMBOL res 1248 32 R90
WINDOW 0 0 56 VBottom 2
WINDOW 3 32 56 VTop 2
SYMATTR InstName R11
SYMATTR Value {Rcf}
SYMBOL cap 480 112 R0
SYMATTR InstName C1
SYMATTR Value {Ca2}
SYMBOL cap 1040 112 R0
SYMATTR InstName C3
SYMATTR Value {Cf2}
SYMBOL cap 656 112 R0
SYMATTR InstName C2
SYMATTR Value {Ca2}
SYMBOL res 688 32 R90
WINDOW 0 0 56 VBottom 2
WINDOW 3 32 56 VTop 2
SYMATTR InstName R5
SYMATTR Value {Ra2}
SYMBOL cap 1120 112 R0
SYMATTR InstName C4
SYMATTR Value {Cf2}
TEXT -296 656 Left 2 !.tran 90
TEXT -288 -720 Left 2 ;Cell Characteristics
TEXT -288 -688 Left 2 !.param Width = '0.1606 - 0.0045'
TEXT -288 -656 Left 2 !.param Height = '0.227 - 0.0045 - 0.017'
TEXT -288 -608 Left 2 ;Insulation Resistance
TEXT -288 -576 Left 2 !.param InsThick = '3 * 0.0000254'
TEXT -288 -544 Left 2 !.param InsThermCond = 0.12
TEXT -296 496 Left 2 !.param Rci = 'Ri / 3'
TEXT -288 -448 Left 2 ;Aluminum Characteristics
TEXT -288 -416 Left 2 !.param AluThick = 0.0003
TEXT -288 -384 Left 2 !.param AluDensity = 2700
TEXT -288 -336 Left 2 ;Aluminum Capacitance
TEXT -288 -304 Left 2 !.param AluSpecHeat = 900
TEXT -288 -272 Left 2 !.param Ca = 'Width * Height * AluThick * AluDensity * AluSpecHeat'
TEXT -288 -240 Left 2 !.param Ca2 = 'Ca / 2'
TEXT -288 -192 Left 2 ;Aluminum Resistance
TEXT -288 -160 Left 2 !.param AluThermCond = 205
TEXT -288 -128 Left 2 !.param Ra = 'AluThick / (Width * Height * AluThermCond)'
TEXT -288 -96 Left 2 !.param Ra2 = 'Ra / 2'
TEXT -296 528 Left 2 !.param Rcia = 'Rci'
TEXT -288 -40 Left 2 ;Foam Characateristics
TEXT -288 -8 Left 2 !.param FoamThick = 0.0016
TEXT -288 24 Left 2 !.param FoamDensity = 320
TEXT -296 200 Left 2 ;Foam Capacitance
TEXT -296 232 Left 2 !.param FoamSpecHeat = 1200
TEXT -296 264 Left 2 !.param Cf = 'Width * Height * FoamThick * FoamDensity * FoamSpecHeat'
TEXT -296 296 Left 2 !.param Cf2 = 'Cf / 2'
TEXT -296 344 Left 2 ;Foam Resistance
TEXT -296 376 Left 2 !.param FoamThermCond = 0.015
TEXT -296 408 Left 2 !.param Rf = 'FoamThick / (Width * Height * FoamThermCond)'
TEXT -296 560 Left 2 !.param Rcf = 'Rci'
TEXT -288 -512 Left 2 !.param Ri = 'InsThick / (Width * Height * InsThermCond)'
TEXT -296 688 Left 2 !.ic V(Tcf) = 0
TEXT -296 720 Left 2 !.ic V(Tcb) = 0
TEXT -296 752 Left 2 !.ic V(Tff) = 0
TEXT -296 784 Left 2 !.ic V(Tfb) = 0
TEXT -296 624 Left 2 ;Simulation Parameters
TEXT -296 464 Left 2 ;Contact Resistances
